Input file: C:\Users\santosh\Desktop\MS2Compound-master\TestData\FragmentPrediction\inputSMILES.txt
Output file: C:\Users\santosh\Desktop\MS2Compound-master\TestData\FragmentPrediction\OUTPUT
Ionization mode: Positive
Spectra type: ESI-MS/MS (CE)
